testcases/IEEE_118_prior_solution.m
% Case saved by PowerWorld Simulator, version 20, build date January 29, 2019
% Case Information Header = 1 lines
%  08/25/93 UW ARCHIVE           100.0  1961 W IEEE 118 Bus Test Case
function mpc = IEEE_118_prior_solution
mpc.version = '2';
mpc.baseMVA =  100.00;

%% bus data 
mpc.bus = [
1	2	51.00	27.00	0.00	0.00	1	0.9549999	10.982815	138.00	1	1.100	0.900
2	1	20.00	9.00	0.00	0.00	1	0.9713927	11.522840	138.00	1	1.100	0.900
3	1	39.00	10.00	0.00	0.00	1	0.9676917	11.866171	138.00	1	1.100	0.900
4	2	39.00	12.00	0.00	0.00	1	0.9979999	15.583643	138.00	1	1.100	0.900
5	1	0.00	0.00	0.00	-40.00	1	1.0019842	16.028656	138.00	1	1.100	0.900
6	2	52.00	22.00	0.00	0.00	1	0.9899999	13.301813	138.00	1	1.100	0.900
7	1	19.00	2.00	0.00	0.00	1	0.9893278	12.857461	138.00	1	1.100	0.900
8	2	28.00	0.00	0.00	0.00	1	1.0149999	21.049189	138.00	1	1.100	0.900
9	1	0.00	0.00	0.00	0.00	1	1.0429180	28.303295	138.00	1	1.100	0.900
10	2	0.00	0.00	0.00	0.00	1	1.0499998	35.884204	138.00	1	1.100	0.900
11	1	70.00	23.00	0.00	0.00	1	0.9850888	13.016078	138.00	1	1.100	0.900
12	2	47.00	10.00	0.00	0.00	1	0.9899999	12.499333	138.00	1	1.100	0.900
13	1	34.00	16.00	0.00	0.00	1	0.9683026	11.641162	138.00	1	1.100	0.900
14	1	14.00	1.00	0.00	0.00	1	0.9835911	11.783148	138.00	1	1.100	0.900
15	2	90.00	30.00	0.00	0.00	1	0.9699999	11.489413	138.00	1	1.100	0.900
16	1	25.00	10.00	0.00	0.00	1	0.9839108	12.197787	138.00	1	1.100	0.900
17	1	11.00	3.00	0.00	0.00	1	0.9951307	14.005626	138.00	1	1.100	0.900
18	2	60.00	34.00	0.00	0.00	1	0.9729999	11.791963	138.00	1	1.100	0.900
19	2	45.00	25.00	0.00	0.00	1	0.9634272	11.307352	138.00	1	1.100	0.900
20	1	18.00	3.00	0.00	0.00	1	0.9580602	12.187182	138.00	1	1.100	0.900
21	1	14.00	8.00	0.00	0.00	1	0.9586241	13.775107	138.00	1	1.100	0.900
22	1	10.00	5.00	0.00	0.00	1	0.9696490	16.329604	138.00	1	1.100	0.900
23	1	7.00	3.00	0.00	0.00	1	0.9996558	21.250349	138.00	1	1.100	0.900
24	2	13.00	0.00	0.00	0.00	1	0.9919999	21.118073	138.00	1	1.100	0.900
25	2	0.00	0.00	0.00	0.00	1	1.0499999	28.184442	138.00	1	1.100	0.900
26	2	0.00	0.00	0.00	0.00	1	1.0149999	29.965006	138.00	1	1.100	0.900
27	2	71.00	13.00	0.00	0.00	1	0.9679999	15.612643	138.00	1	1.100	0.900
28	1	17.00	7.00	0.00	0.00	1	0.9615680	13.888030	138.00	1	1.100	0.900
29	1	24.00	4.00	0.00	0.00	1	0.9632160	12.895644	138.00	1	1.100	0.900
30	1	0.00	0.00	0.00	0.00	1	0.9855179	19.040178	138.00	1	1.100	0.900
31	2	43.00	27.00	0.00	0.00	1	0.9669999	13.012500	138.00	1	1.100	0.900
32	2	59.00	23.00	0.00	0.00	1	0.9635886	15.060016	138.00	1	1.100	0.900
33	1	23.00	9.00	0.00	0.00	1	0.9715601	10.864479	138.00	1	1.100	0.900
34	2	59.00	26.00	0.00	14.00	1	0.9858614	11.506506	138.00	1	1.100	0.900
35	1	33.00	9.00	0.00	0.00	1	0.9806785	11.079311	138.00	1	1.100	0.900
36	2	31.00	17.00	0.00	0.00	1	0.9800000	11.083748	138.00	1	1.100	0.900
37	1	0.00	0.00	0.00	-25.00	1	0.9919814	11.970274	138.00	1	1.100	0.900
38	1	0.00	0.00	0.00	0.00	1	0.9619832	17.107215	138.00	1	1.100	0.900
39	1	27.00	11.00	0.00	0.00	1	0.9704522	8.597792	138.00	1	1.100	0.900
40	2	66.00	23.00	0.00	0.00	1	0.9700000	7.523951	138.00	1	1.100	0.900
41	1	37.00	10.00	0.00	0.00	1	0.9668331	7.077873	138.00	1	1.100	0.900
42	2	96.00	23.00	0.00	0.00	1	0.9850000	8.673407	138.00	1	1.100	0.900
43	1	18.00	7.00	0.00	0.00	1	0.9784812	11.460410	138.00	1	1.100	0.900
44	1	16.00	8.00	0.00	10.00	1	0.9850084	13.946026	138.00	1	1.100	0.900
45	1	53.00	22.00	0.00	10.00	1	0.9866542	15.776750	138.00	1	1.100	0.900
46	2	28.00	10.00	0.00	10.00	1	1.0050000	18.582653	138.00	1	1.100	0.900
47	1	34.00	0.00	0.00	0.00	1	1.0170542	20.805062	138.00	1	1.100	0.900
48	1	20.00	11.00	0.00	15.00	1	1.0206333	20.025323	138.00	1	1.100	0.900
49	2	87.00	30.00	0.00	0.00	1	1.0250000	21.028406	138.00	1	1.100	0.900
50	1	17.00	4.00	0.00	0.00	1	1.0010823	18.989363	138.00	1	1.100	0.900
51	1	17.00	8.00	0.00	0.00	1	0.9668759	16.370331	138.00	1	1.100	0.900
52	1	18.00	5.00	0.00	0.00	1	0.9568171	15.416906	138.00	1	1.100	0.900
53	1	23.00	11.00	0.00	0.00	1	0.9459825	14.441945	138.00	1	1.100	0.900
54	2	113.00	32.00	0.00	0.00	1	0.9550000	15.353660	138.00	1	1.100	0.900
55	2	63.00	22.00	0.00	0.00	1	0.9520000	15.063734	138.00	1	1.100	0.900
56	2	84.00	18.00	0.00	0.00	1	0.9540000	15.250438	138.00	1	1.100	0.900
57	1	12.00	3.00	0.00	0.00	1	0.9705820	16.455203	138.00	1	1.100	0.900
58	1	12.00	3.00	0.00	0.00	1	0.9590382	15.598386	138.00	1	1.100	0.900
59	2	277.00	113.00	0.00	0.00	1	0.9850000	19.453034	138.00	1	1.100	0.900
60	1	78.00	3.00	0.00	0.00	1	0.9931563	23.234340	138.00	1	1.100	0.900
61	2	0.00	0.00	0.00	0.00	1	0.9950000	24.125657	138.00	1	1.100	0.900
62	2	77.00	14.00	0.00	0.00	1	0.9980000	23.509120	138.00	1	1.100	0.900
63	1	0.00	0.00	0.00	0.00	1	0.9687379	22.831563	138.00	1	1.100	0.900
64	1	0.00	0.00	0.00	0.00	1	0.9837393	24.597290	138.00	1	1.100	0.900
65	2	0.00	0.00	0.00	0.00	1	1.0050000	27.722432	138.00	1	1.100	0.900
66	2	39.00	18.00	0.00	0.00	1	1.0499999	27.563418	138.00	1	1.100	0.900
67	1	28.00	7.00	0.00	0.00	1	1.0196816	24.923501	138.00	1	1.100	0.900
68	1	0.00	0.00	0.00	0.00	1	1.0032494	27.601348	138.00	1	1.100	0.900
69	3	0.00	0.00	0.00	0.00	1	1.0350000	30.000000	138.00	1	1.100	0.900
70	2	66.00	20.00	0.00	0.00	1	0.9840000	22.620455	138.00	1	1.100	0.900
71	1	0.00	0.00	0.00	0.00	1	0.9868445	22.209582	138.00	1	1.100	0.900
72	2	12.00	0.00	0.00	0.00	1	0.9800000	21.111973	138.00	1	1.100	0.900
73	2	6.00	0.00	0.00	0.00	1	0.9910000	21.998089	138.00	1	1.100	0.900
74	2	68.00	27.00	0.00	12.00	1	0.9580000	21.671840	138.00	1	1.100	0.900
75	1	47.00	11.00	0.00	0.00	1	0.9673330	22.933699	138.00	1	1.100	0.900
76	2	68.00	36.00	0.00	0.00	1	0.9430000	21.804196	138.00	1	1.100	0.900
77	2	61.00	28.00	0.00	0.00	1	1.0060000	26.758730	138.00	1	1.100	0.900
78	1	71.00	26.00	0.00	0.00	1	1.0034239	26.454913	138.00	1	1.100	0.900
79	1	39.00	32.00	0.00	20.00	1	1.0092230	26.754136	138.00	1	1.100	0.900
80	2	130.00	26.00	0.00	0.00	1	1.0400000	28.999880	138.00	1	1.100	0.900
81	1	0.00	0.00	0.00	0.00	1	0.9968081	28.150782	138.00	1	1.100	0.900
82	1	54.00	27.00	0.00	20.00	1	0.9887417	27.280367	138.00	1	1.100	0.900
83	1	20.00	10.00	0.00	10.00	1	0.9845189	28.470705	138.00	1	1.100	0.900
84	1	11.00	7.00	0.00	0.00	1	0.9797514	31.004554	138.00	1	1.100	0.900
85	2	24.00	15.00	0.00	0.00	1	0.9850000	32.558807	138.00	1	1.100	0.900
86	1	21.00	10.00	0.00	0.00	1	0.9866907	31.189358	138.00	1	1.100	0.900
87	2	0.00	0.00	0.00	0.00	1	1.0150000	31.448571	138.00	1	1.100	0.900
88	1	48.00	10.00	0.00	0.00	1	0.9874564	35.690166	138.00	1	1.100	0.900
89	2	0.00	0.00	0.00	0.00	1	1.0050000	39.745845	138.00	1	1.100	0.900
90	2	163.00	42.00	0.00	0.00	1	0.9850000	33.341059	138.00	1	1.100	0.900
91	2	10.00	0.00	0.00	0.00	1	0.9800000	33.360097	138.00	1	1.100	0.900
92	2	65.00	10.00	0.00	0.00	1	0.9922783	33.859168	138.00	1	1.100	0.900
93	1	12.00	7.00	0.00	0.00	1	0.9869065	30.848104	138.00	1	1.100	0.900
94	1	30.00	16.00	0.00	0.00	1	0.9905734	28.694074	138.00	1	1.100	0.900
95	1	42.00	31.00	0.00	0.00	1	0.9809245	27.721808	138.00	1	1.100	0.900
96	1	38.00	15.00	0.00	0.00	1	0.9926700	27.553928	138.00	1	1.100	0.900
97	1	15.00	9.00	0.00	0.00	1	1.0113666	27.926412	138.00	1	1.100	0.900
98	1	34.00	8.00	0.00	0.00	1	1.0235096	27.449701	138.00	1	1.100	0.900
99	2	42.00	0.00	0.00	0.00	1	1.0100000	27.089146	138.00	1	1.100	0.900
100	2	37.00	18.00	0.00	0.00	1	1.0170000	28.086276	138.00	1	1.100	0.900
101	1	22.00	15.00	0.00	0.00	1	0.9924366	29.658591	138.00	1	1.100	0.900
102	1	5.00	3.00	0.00	0.00	1	0.9910023	32.356011	138.00	1	1.100	0.900
103	2	23.00	16.00	0.00	0.00	1	1.0007173	24.493501	138.00	1	1.100	0.900
104	2	38.00	25.00	0.00	0.00	1	0.9710001	21.747932	138.00	1	1.100	0.900
105	2	31.00	26.00	0.00	20.00	1	0.9659912	20.625880	138.00	1	1.100	0.900
106	1	43.00	16.00	0.00	0.00	1	0.9617886	20.377777	138.00	1	1.100	0.900
107	2	50.00	12.00	0.00	6.00	1	0.9520001	17.587847	138.00	1	1.100	0.900
108	1	2.00	1.00	0.00	0.00	1	0.9668110	19.435189	138.00	1	1.100	0.900
109	1	8.00	3.00	0.00	0.00	1	0.9674621	18.986056	138.00	1	1.100	0.900
110	2	39.00	30.00	0.00	6.00	1	0.9730001	18.147439	138.00	1	1.100	0.900
111	2	0.00	0.00	0.00	0.00	1	0.9800001	19.792519	138.00	1	1.100	0.900
112	2	68.00	13.00	0.00	0.00	1	0.9750001	15.048221	138.00	1	1.100	0.900
113	2	6.00	0.00	0.00	0.00	1	0.9929999	14.003670	138.00	1	1.100	0.900
114	1	8.00	3.00	0.00	0.00	1	0.9604363	14.729791	138.00	1	1.100	0.900
115	1	22.00	7.00	0.00	0.00	1	0.9603241	14.722145	138.00	1	1.100	0.900
116	2	184.00	0.00	0.00	0.00	1	1.0050000	27.166358	138.00	1	1.100	0.900
117	1	20.00	8.00	0.00	0.00	1	0.9738243	10.958331	138.00	1	1.100	0.900
118	1	33.00	15.00	0.00	0.00	1	0.9494383	21.946245	138.00	1	1.100	0.900
];

%% generator data 
mpc.gen = [
1	0.00	-3.10	15.00	-5.00	0.9550	100.00	1	0.00	0.00	0.00	0.00	0.00	0.00	0.00	0.00	0	0	0	0	0.0000
4	0.00	-15.00	300.00	-300.00	0.9980	100.00	1	0.00	0.00	0.00	0.00	0.00	0.00	0.00	0.00	0	0	0	0	0.0000
6	0.00	15.93	50.00	-13.00	0.9900	100.00	1	0.00	0.00	0.00	0.00	0.00	0.00	0.00	0.00	0	0	0	0	0.0000
8	0.00	62.76	300.00	-300.00	1.0150	100.00	1	0.00	0.00	0.00	0.00	0.00	0.00	0.00	0.00	0	0	0	0	0.0000
10	450.00	-51.04	200.00	-147.00	1.0500	100.00	1	450.00	450.00	0.00	0.00	0.00	0.00	0.00	0.00	0	0	0	0	0.0000
12	85.00	91.27	120.00	-35.00	0.9900	100.00	1	85.00	85.00	0.00	0.00	0.00	0.00	0.00	0.00	0	0	0	0	0.0000
15	0.00	3.06	30.00	-10.00	0.9700	100.00	1	0.00	0.00	0.00	0.00	0.00	0.00	0.00	0.00	0	0	0	0	0.0000
18	0.00	25.53	50.00	-16.00	0.9730	100.00	1	0.00	0.00	0.00	0.00	0.00	0.00	0.00	0.00	0	0	0	0	0.0000
19	0.00	-8.00	24.00	-8.00	0.9620	100.00	1	0.00	0.00	0.00	0.00	0.00	0.00	0.00	0.00	0	0	0	0	0.0000
24	0.00	-15.28	300.00	-300.00	0.9920	100.00	1	0.00	0.00	0.00	0.00	0.00	0.00	0.00	0.00	0	0	0	0	0.0000
25	220.00	49.80	140.00	-47.00	1.0500	100.00	1	220.00	220.00	0.00	0.00	0.00	0.00	0.00	0.00	0	0	0	0	0.0000
26	314.00	9.90	1000.00	-1000.00	1.0150	100.00	1	314.00	314.00	0.00	0.00	0.00	0.00	0.00	0.00	0	0	0	0	0.0000
27	0.00	2.83	300.00	-300.00	0.9680	100.00	1	0.00	0.00	0.00	0.00	0.00	0.00	0.00	0.00	0	0	0	0	0.0000
31	7.00	31.98	300.00	-300.00	0.9670	100.00	1	7.00	7.00	0.00	0.00	0.00	0.00	0.00	0.00	0	0	0	0	0.0000
32	0.00	-14.00	42.00	-14.00	0.9630	100.00	1	0.00	0.00	0.00	0.00	0.00	0.00	0.00	0.00	0	0	0	0	0.0000
34	0.00	-8.00	24.00	-8.00	0.9840	100.00	1	0.00	0.00	0.00	0.00	0.00	0.00	0.00	0.00	0	0	0	0	0.0000
36	0.00	-1.25	24.00	-8.00	0.9800	100.00	1	0.00	0.00	0.00	0.00	0.00	0.00	0.00	0.00	0	0	0	0	0.0000
40	0.00	26.89	300.00	-300.00	0.9700	100.00	1	0.00	0.00	0.00	0.00	0.00	0.00	0.00	0.00	0	0	0	0	0.0000
42	0.00	41.00	300.00	-300.00	0.9850	100.00	1	0.00	0.00	0.00	0.00	0.00	0.00	0.00	0.00	0	0	0	0	0.0000
46	19.00	-5.23	100.00	-100.00	1.0050	100.00	1	19.00	19.00	0.00	0.00	0.00	0.00	0.00	0.00	0	0	0	0	0.0000
49	204.00	115.65	210.00	-85.00	1.0250	100.00	1	204.00	204.00	0.00	0.00	0.00	0.00	0.00	0.00	0	0	0	0	0.0000
54	48.00	3.90	300.00	-300.00	0.9550	100.00	1	48.00	48.00	0.00	0.00	0.00	0.00	0.00	0.00	0	0	0	0	0.0000
55	0.00	4.66	23.00	-8.00	0.9520	100.00	1	0.00	0.00	0.00	0.00	0.00	0.00	0.00	0.00	0	0	0	0	0.0000
56	0.00	-2.29	15.00	-8.00	0.9540	100.00	1	0.00	0.00	0.00	0.00	0.00	0.00	0.00	0.00	0	0	0	0	0.0000
59	155.00	76.83	180.00	-60.00	0.9850	100.00	1	155.00	155.00	0.00	0.00	0.00	0.00	0.00	0.00	0	0	0	0	0.0000
61	160.00	-40.39	300.00	-100.00	0.9950	100.00	1	160.00	160.00	0.00	0.00	0.00	0.00	0.00	0.00	0	0	0	0	0.0000
62	0.00	1.26	20.00	-20.00	0.9980	100.00	1	0.00	0.00	0.00	0.00	0.00	0.00	0.00	0.00	0	0	0	0	0.0000
65	391.00	80.81	200.00	-67.00	1.0050	100.00	1	391.00	391.00	0.00	0.00	0.00	0.00	0.00	0.00	0	0	0	0	0.0000
66	392.00	-1.95	200.00	-67.00	1.0500	100.00	1	392.00	392.00	0.00	0.00	0.00	0.00	0.00	0.00	0	0	0	0	0.0000
69	513.39	-82.38	300.00	-300.00	1.0350	100.00	1	10000.00	-10000.00	0.00	0.00	0.00	0.00	0.00	0.00	0	0	0	0	0.0000
70	0.00	9.66	32.00	-10.00	0.9840	100.00	1	0.00	0.00	0.00	0.00	0.00	0.00	0.00	0.00	0	0	0	0	0.0000
72	0.00	-11.13	100.00	-100.00	0.9800	100.00	1	0.00	0.00	0.00	0.00	0.00	0.00	0.00	0.00	0	0	0	0	0.0000
73	0.00	9.65	100.00	-100.00	0.9910	100.00	1	0.00	0.00	0.00	0.00	0.00	0.00	0.00	0.00	0	0	0	0	0.0000
74	0.00	-5.63	9.00	-6.00	0.9580	100.00	1	0.00	0.00	0.00	0.00	0.00	0.00	0.00	0.00	0	0	0	0	0.0000
76	0.00	5.27	23.00	-8.00	0.9430	100.00	1	0.00	0.00	0.00	0.00	0.00	0.00	0.00	0.00	0	0	0	0	0.0000
77	0.00	11.94	70.00	-20.00	1.0060	100.00	1	0.00	0.00	0.00	0.00	0.00	0.00	0.00	0.00	0	0	0	0	0.0000
80	477.00	105.05	280.00	-165.00	1.0400	100.00	1	477.00	477.00	0.00	0.00	0.00	0.00	0.00	0.00	0	0	0	0	0.0000
85	0.00	-5.77	23.00	-8.00	0.9850	100.00	1	0.00	0.00	0.00	0.00	0.00	0.00	0.00	0.00	0	0	0	0	0.0000
87	4.00	11.02	1000.00	-100.00	1.0150	100.00	1	4.00	4.00	0.00	0.00	0.00	0.00	0.00	0.00	0	0	0	0	0.0000
89	607.00	-11.79	300.00	-210.00	1.0050	100.00	1	607.00	607.00	0.00	0.00	0.00	0.00	0.00	0.00	0	0	0	0	0.0000
90	0.00	59.30	300.00	-300.00	0.9850	100.00	1	0.00	0.00	0.00	0.00	0.00	0.00	0.00	0.00	0	0	0	0	0.0000
91	0.00	-14.85	100.00	-100.00	0.9800	100.00	1	0.00	0.00	0.00	0.00	0.00	0.00	0.00	0.00	0	0	0	0	0.0000
92	0.00	-3.00	9.00	-3.00	0.9900	100.00	1	0.00	0.00	0.00	0.00	0.00	0.00	0.00	0.00	0	0	0	0	0.0000
99	0.00	-17.54	100.00	-100.00	1.0100	100.00	1	0.00	0.00	0.00	0.00	0.00	0.00	0.00	0.00	0	0	0	0	0.0000
100	252.00	110.06	155.00	-50.00	1.0170	100.00	1	252.00	252.00	0.00	0.00	0.00	0.00	0.00	0.00	0	0	0	0	0.0000
103	40.00	40.00	40.00	-15.00	1.0100	100.00	1	40.00	40.00	0.00	0.00	0.00	0.00	0.00	0.00	0	0	0	0	0.0000
104	0.00	5.64	23.00	-8.00	0.9710	100.00	1	0.00	0.00	0.00	0.00	0.00	0.00	0.00	0.00	0	0	0	0	0.0000
105	0.00	-8.00	23.00	-8.00	0.9650	100.00	1	0.00	0.00	0.00	0.00	0.00	0.00	0.00	0.00	0	0	0	0	0.0000
107	0.00	5.69	200.00	-200.00	0.9520	100.00	1	0.00	0.00	0.00	0.00	0.00	0.00	0.00	0.00	0	0	0	0	0.0000
110	0.00	4.85	23.00	-8.00	0.9730	100.00	1	0.00	0.00	0.00	0.00	0.00	0.00	0.00	0.00	0	0	0	0	0.0000
111	36.00	-1.84	1000.00	-100.00	0.9800	100.00	1	36.00	36.00	0.00	0.00	0.00	0.00	0.00	0.00	0	0	0	0	0.0000
112	0.00	41.51	1000.00	-100.00	0.9750	100.00	1	0.00	0.00	0.00	0.00	0.00	0.00	0.00	0.00	0	0	0	0	0.0000
113	0.00	6.32	200.00	-100.00	0.9930	100.00	1	0.00	0.00	0.00	0.00	0.00	0.00	0.00	0.00	0	0	0	0	0.0000
116	0.00	51.32	1000.00	-1000.00	1.0050	100.00	1	0.00	0.00	0.00	0.00	0.00	0.00	0.00	0.00	0	0	0	0	0.0000
];

%% generator cost data
mpc.gencost = [
2	0	0	4	0	0	1	0
2	0	0	4	0	0	1	0
2	0	0	4	0	0	1	0
2	0	0	4	0	0	1	0
2	0	0	4	0	0	1	0
2	0	0	4	0	0	1	0
2	0	0	4	0	0	1	0
2	0	0	4	0	0	1	0
2	0	0	4	0	0	1	0
2	0	0	4	0	0	1	0
2	0	0	4	0	0	1	0
2	0	0	4	0	0	1	0
2	0	0	4	0	0	1	0
2	0	0	4	0	0	1	0
2	0	0	4	0	0	1	0
2	0	0	4	0	0	1	0
2	0	0	4	0	0	1	0
2	0	0	4	0	0	1	0
2	0	0	4	0	0	1	0
2	0	0	4	0	0	1	0
2	0	0	4	0	0	1	0
2	0	0	4	0	0	1	0
2	0	0	4	0	0	1	0
2	0	0	4	0	0	1	0
2	0	0	4	0	0	1	0
2	0	0	4	0	0	1	0
2	0	0	4	0	0	1	0
2	0	0	4	0	0	1	0
2	0	0	4	0	0	1	0
2	0	0	4	0	0	1	0
2	0	0	4	0	0	1	0
2	0	0	4	0	0	1	0
2	0	0	4	0	0	1	0
2	0	0	4	0	0	1	0
2	0	0	4	0	0	1	0
2	0	0	4	0	0	1	0
2	0	0	4	0	0	1	0
2	0	0	4	0	0	1	0
2	0	0	4	0	0	1	0
2	0	0	4	0	0	1	0
2	0	0	4	0	0	1	0
2	0	0	4	0	0	1	0
2	0	0	4	0	0	1	0
2	0	0	4	0	0	1	0
2	0	0	4	0	0	1	0
2	0	0	4	0	0	1	0
2	0	0	4	0	0	1	0
2	0	0	4	0	0	1	0
2	0	0	4	0	0	1	0
2	0	0	4	0	0	1	0
2	0	0	4	0	0	1	0
2	0	0	4	0	0	1	0
2	0	0	4	0	0	1	0
2	0	0	4	0	0	1	0
];

%% branch data
mpc.branch = [
1	2	0.030300	0.099900	0.02540	0.00	0.00	0.00	0.00000	0.000	1	0.00	0.00	-12.36	-13.04	12.45	11.01
1	3	0.012900	0.042400	0.01082	0.00	0.00	0.00	0.00000	0.000	1	0.00	0.00	-38.64	-17.06	38.89	16.89
2	12	0.018700	0.061600	0.01572	0.00	0.00	0.00	0.00000	0.000	1	0.00	0.00	-32.45	-20.01	32.74	19.42
3	5	0.024100	0.108000	0.02840	0.00	0.00	0.00	0.00000	0.000	1	0.00	0.00	-68.10	-14.49	69.34	17.28
3	12	0.048400	0.160000	0.04060	0.00	0.00	0.00	0.00000	0.000	1	0.00	0.00	-9.79	-12.39	9.90	8.86
4	5	0.001760	0.007980	0.00210	0.00	0.00	0.00	0.00000	0.000	1	0.00	0.00	-103.21	-26.79	103.41	27.49
4	11	0.020900	0.068800	0.01748	0.00	0.00	0.00	0.00000	0.000	1	0.00	0.00	64.21	-0.21	-63.35	1.34
5	6	0.011900	0.054000	0.01426	0.00	0.00	0.00	0.00000	0.000	1	0.00	0.00	88.46	4.11	-87.53	-1.30
8	5	0.000000	0.026700	0.00000	0.00	0.00	0.00	0.98500	0.000	1	0.00	0.00	338.42	124.72	-338.42	-92.01
5	11	0.020300	0.068200	0.01738	0.00	0.00	0.00	0.00000	0.000	1	0.00	0.00	77.21	2.97	-76.00	-0.63
6	7	0.004590	0.020800	0.00550	0.00	0.00	0.00	0.00000	0.000	1	0.00	0.00	35.53	-4.77	-35.47	4.50
7	12	0.008620	0.034000	0.00874	0.00	0.00	0.00	0.00000	0.000	1	0.00	0.00	16.47	-6.50	-16.44	5.75
8	9	0.002440	0.030500	1.16200	0.00	0.00	0.00	0.00000	0.000	1	0.00	0.00	-440.63	-89.73	445.25	24.43
8	30	0.004310	0.050400	0.51400	0.00	0.00	0.00	0.00000	0.000	1	0.00	0.00	74.22	27.77	-73.86	-75.07
9	10	0.002580	0.032200	1.23000	0.00	0.00	0.00	0.00000	0.000	1	0.00	0.00	-445.25	-24.43	450.00	-51.04
11	12	0.005950	0.019600	0.00502	0.00	0.00	0.00	0.00000	0.000	1	0.00	0.00	34.28	-35.13	-34.14	35.13
11	13	0.022250	0.073100	0.01876	0.00	0.00	0.00	0.00000	0.000	1	0.00	0.00	35.06	11.41	-34.74	-12.16
12	14	0.021500	0.070700	0.01816	0.00	0.00	0.00	0.00000	0.000	1	0.00	0.00	18.29	2.63	-18.21	-4.15
12	16	0.021200	0.083400	0.02140	0.00	0.00	0.00	0.00000	0.000	1	0.00	0.00	7.50	4.29	-7.49	-6.30
12	117	0.032900	0.140000	0.03580	0.00	0.00	0.00	0.00000	0.000	1	0.00	0.00	20.15	5.20	-20.00	-8.00
13	15	0.074400	0.244400	0.06268	0.00	0.00	0.00	0.00000	0.000	1	0.00	0.00	0.74	-3.84	-0.74	-2.05
14	15	0.059500	0.195000	0.05020	0.00	0.00	0.00	0.00000	0.000	1	0.00	0.00	4.21	3.15	-4.18	-7.84
15	17	0.013200	0.043700	0.04440	0.00	0.00	0.00	0.00000	0.000	1	0.00	0.00	-103.72	-24.41	105.30	25.35
15	19	0.012000	0.039400	0.01010	0.00	0.00	0.00	0.00000	0.000	1	0.00	0.00	11.41	12.24	-11.37	-13.06
15	33	0.038000	0.124400	0.03194	0.00	0.00	0.00	0.00000	0.000	1	0.00	0.00	7.23	-4.88	-7.20	1.96
16	17	0.045400	0.180100	0.04660	0.00	0.00	0.00	0.00000	0.000	1	0.00	0.00	-17.51	-3.70	17.66	-0.29
17	18	0.012300	0.050500	0.01298	0.00	0.00	0.00	0.00000	0.000	1	0.00	0.00	80.27	24.85	-79.39	-22.49
30	17	0.000000	0.038800	0.00000	0.00	0.00	0.00	0.96000	0.000	1	0.00	0.00	231.06	93.37	-231.06	-70.50
17	31	0.047400	0.156300	0.03990	0.00	0.00	0.00	0.00000	0.000	1	0.00	0.00	14.77	11.55	-14.58	-14.76
17	113	0.009130	0.030100	0.00768	0.00	0.00	0.00	0.00000	0.000	1	0.00	0.00	2.06	6.04	-2.06	-6.78
18	19	0.011190	0.049300	0.01142	0.00	0.00	0.00	0.00000	0.000	1	0.00	0.00	19.39	14.02	-19.32	-14.78
19	20	0.025200	0.117000	0.02980	0.00	0.00	0.00	0.00000	0.000	1	0.00	0.00	-10.65	5.42	10.69	-7.97
19	34	0.075200	0.247000	0.06320	0.00	0.00	0.00	0.00000	0.000	1	0.00	0.00	-3.66	-10.57	3.72	4.75
20	21	0.018300	0.084900	0.02160	0.00	0.00	0.00	0.00000	0.000	1	0.00	0.00	-28.69	4.97	28.86	-6.16
21	22	0.020900	0.097000	0.02460	0.00	0.00	0.00	0.00000	0.000	1	0.00	0.00	-42.86	-1.84	43.28	1.49
22	23	0.034200	0.159000	0.04040	0.00	0.00	0.00	0.00000	0.000	1	0.00	0.00	-53.28	-6.49	54.32	7.41
23	24	0.013500	0.049200	0.04980	0.00	0.00	0.00	0.00000	0.000	1	0.00	0.00	8.30	10.80	-8.27	-15.61
23	25	0.015600	0.080000	0.08640	0.00	0.00	0.00	0.00000	0.000	1	0.00	0.00	-162.61	-25.92	166.81	38.38
23	32	0.031700	0.115300	0.11730	0.00	0.00	0.00	0.00000	0.000	1	0.00	0.00	92.99	4.71	-90.21	-5.91
24	70	0.002210	0.411500	0.10198	0.00	0.00	0.00	0.00000	0.000	1	0.00	0.00	-6.21	-2.97	6.21	-6.80
24	72	0.048800	0.196000	0.04880	0.00	0.00	0.00	0.00000	0.000	1	0.00	0.00	1.47	3.31	-1.46	-7.98
26	25	0.000000	0.038200	0.00000	0.00	0.00	0.00	0.96000	0.000	1	0.00	0.00	90.30	21.58	-90.30	-18.64
25	27	0.031800	0.163000	0.17640	0.00	0.00	0.00	0.00000	0.000	1	0.00	0.00	143.49	30.06	-137.09	-15.27
26	30	0.007990	0.086000	0.90800	0.00	0.00	0.00	0.00000	0.000	1	0.00	0.00	223.70	-11.68	-219.72	-36.39
27	28	0.019130	0.085500	0.02160	0.00	0.00	0.00	0.00000	0.000	1	0.00	0.00	32.86	-0.59	-32.64	-0.44
27	32	0.022900	0.075500	0.01926	0.00	0.00	0.00	0.00000	0.000	1	0.00	0.00	12.50	1.02	-12.46	-2.69
27	115	0.016400	0.074100	0.01972	0.00	0.00	0.00	0.00000	0.000	1	0.00	0.00	20.73	4.67	-20.65	-6.13
28	29	0.023700	0.094300	0.02380	0.00	0.00	0.00	0.00000	0.000	1	0.00	0.00	15.64	-6.56	-15.57	4.64
29	31	0.010800	0.033100	0.00830	0.00	0.00	0.00	0.00000	0.000	1	0.00	0.00	-8.43	-8.64	8.45	7.92
30	38	0.004640	0.054000	0.42200	0.00	0.00	0.00	0.00000	0.000	1	0.00	0.00	62.53	18.08	-62.28	-55.10
31	32	0.029800	0.098500	0.02510	0.00	0.00	0.00	0.00000	0.000	1	0.00	0.00	-29.87	11.82	30.21	-13.04
32	113	0.061500	0.203000	0.05180	0.00	0.00	0.00	0.00000	0.000	1	0.00	0.00	4.11	-17.53	-3.94	13.11
32	114	0.013500	0.061200	0.01628	0.00	0.00	0.00	0.00000	0.000	1	0.00	0.00	9.36	2.17	-9.35	-3.61
33	37	0.041500	0.142000	0.03660	0.00	0.00	0.00	0.00000	0.000	1	0.00	0.00	-15.80	-10.96	15.94	7.93
34	36	0.008710	0.026800	0.00568	0.00	0.00	0.00	0.00000	0.000	1	0.00	0.00	30.43	11.50	-30.33	-11.75
34	37	0.002560	0.009400	0.00984	0.00	0.00	0.00	0.00000	0.000	1	0.00	0.00	-94.58	-38.56	94.86	38.61
34	43	0.041300	0.168100	0.04226	0.00	0.00	0.00	0.00000	0.000	1	0.00	0.00	1.44	1.92	-1.43	-5.97
35	36	0.002240	0.010200	0.00268	0.00	0.00	0.00	0.00000	0.000	1	0.00	0.00	0.67	6.25	-0.67	-6.50
35	37	0.011000	0.049700	0.01318	0.00	0.00	0.00	0.00000	0.000	1	0.00	0.00	-33.67	-15.25	33.82	14.66
38	37	0.000000	0.037500	0.00000	0.00	0.00	0.00	0.93500	0.000	1	0.00	0.00	243.68	112.11	-243.68	-86.62
37	39	0.032100	0.106000	0.02700	0.00	0.00	0.00	0.00000	0.000	1	0.00	0.00	54.96	3.75	-53.97	-3.07
37	40	0.059300	0.168000	0.04200	0.00	0.00	0.00	0.00000	0.000	1	0.00	0.00	44.10	-2.93	-42.93	2.21
38	65	0.009010	0.098600	1.04600	0.00	0.00	0.00	0.00000	0.000	1	0.00	0.00	-181.41	-57.01	184.62	-9.07
39	40	0.018400	0.060500	0.01552	0.00	0.00	0.00	0.00000	0.000	1	0.00	0.00	26.97	-7.93	-26.82	6.97
40	41	0.014500	0.048700	0.01222	0.00	0.00	0.00	0.00000	0.000	1	0.00	0.00	15.51	1.17	-15.48	-2.19
40	42	0.055500	0.183000	0.04660	0.00	0.00	0.00	0.00000	0.000	1	0.00	0.00	-11.77	-6.47	11.86	2.32
41	42	0.041000	0.135000	0.03440	0.00	0.00	0.00	0.00000	0.000	1	0.00	0.00	-21.52	-7.81	21.74	5.26
42	49	0.071500	0.323000	0.08600	0.00	0.00	0.00	0.00000	0.000	1	0.00	0.00	-64.80	5.21	67.96	0.37
42	49	0.071500	0.323000	0.08600	0.00	0.00	0.00	0.00000	0.000	1	0.00	0.00	-64.80	5.21	67.96	0.37
43	44	0.060800	0.245400	0.06068	0.00	0.00	0.00	0.00000	0.000	1	0.00	0.00	-16.57	-1.03	16.75	-4.10
44	45	0.022400	0.090100	0.02240	0.00	0.00	0.00	0.00000	0.000	1	0.00	0.00	-32.75	5.81	33.00	-6.94
45	46	0.040000	0.135600	0.03320	0.00	0.00	0.00	0.00000	0.000	1	0.00	0.00	-36.32	-3.38	36.86	1.92
45	49	0.068400	0.186000	0.04440	0.00	0.00	0.00	0.00000	0.000	1	0.00	0.00	-49.69	-1.95	51.42	2.17
46	47	0.038000	0.127000	0.03160	0.00	0.00	0.00	0.00000	0.000	1	0.00	0.00	-31.10	-1.22	31.46	-0.79
46	48	0.060100	0.189000	0.04720	0.00	0.00	0.00	0.00000	0.000	1	0.00	0.00	-14.76	-5.83	14.90	1.42
47	49	0.019100	0.062500	0.01604	0.00	0.00	0.00	0.00000	0.000	1	0.00	0.00	-9.56	-10.83	9.59	9.27
47	69	0.084400	0.277800	0.07092	0.00	0.00	0.00	0.00000	0.000	1	0.00	0.00	-55.91	11.62	58.65	-10.06
48	49	0.017900	0.050500	0.01258	0.00	0.00	0.00	0.00000	0.000	1	0.00	0.00	-34.90	3.21	35.11	-3.92
49	50	0.026700	0.075200	0.01874	0.00	0.00	0.00	0.00000	0.000	1	0.00	0.00	53.67	13.43	-52.88	-13.14
49	51	0.048600	0.137000	0.03420	0.00	0.00	0.00	0.00000	0.000	1	0.00	0.00	66.63	20.44	-64.35	-17.40
49	54	0.086900	0.291000	0.07300	0.00	0.00	0.00	0.00000	0.000	1	0.00	0.00	37.75	11.20	-36.39	-13.79
49	54	0.073000	0.289000	0.07380	0.00	0.00	0.00	0.00000	0.000	1	0.00	0.00	37.77	13.07	-36.58	-15.60
49	66	0.018000	0.091900	0.02480	0.00	0.00	0.00	0.00000	0.000	1	0.00	0.00	-132.18	4.31	135.18	8.33
49	66	0.018000	0.091900	0.02480	0.00	0.00	0.00	0.00000	0.000	1	0.00	0.00	-132.18	4.31	135.18	8.33
49	69	0.098500	0.324000	0.08280	0.00	0.00	0.00	0.00000	0.000	1	0.00	0.00	-46.51	10.63	48.74	-12.05
50	57	0.047400	0.134000	0.03320	0.00	0.00	0.00	0.00000	0.000	1	0.00	0.00	35.88	9.14	-35.22	-10.49
51	52	0.020300	0.058800	0.01396	0.00	0.00	0.00	0.00000	0.000	1	0.00	0.00	28.56	6.25	-28.37	-6.99
51	58	0.025500	0.071900	0.01788	0.00	0.00	0.00	0.00000	0.000	1	0.00	0.00	18.79	3.16	-18.69	-4.53
52	53	0.040500	0.163500	0.04058	0.00	0.00	0.00	0.00000	0.000	1	0.00	0.00	10.37	1.99	-10.32	-5.45
53	54	0.026300	0.122000	0.03100	0.00	0.00	0.00	0.00000	0.000	1	0.00	0.00	-12.68	-5.55	12.73	2.99
54	55	0.016900	0.070700	0.02020	0.00	0.00	0.00	0.00000	0.000	1	0.00	0.00	7.08	1.46	-7.07	-3.25
54	56	0.002750	0.009550	0.00732	0.00	0.00	0.00	0.00000	0.000	1	0.00	0.00	18.53	4.34	-18.52	-4.97
54	59	0.050300	0.229300	0.05980	0.00	0.00	0.00	0.00000	0.000	1	0.00	0.00	-30.38	-7.51	30.90	4.26
55	56	0.004880	0.015100	0.00374	0.00	0.00	0.00	0.00000	0.000	1	0.00	0.00	-21.43	-5.82	21.45	5.56
55	59	0.047390	0.215800	0.05646	0.00	0.00	0.00	0.00000	0.000	1	0.00	0.00	-34.51	-8.26	35.15	5.88
56	57	0.034300	0.096600	0.02420	0.00	0.00	0.00	0.00000	0.000	1	0.00	0.00	-22.99	-9.10	23.22	7.49
56	58	0.034300	0.096600	0.02420	0.00	0.00	0.00	0.00000	0.000	1	0.00	0.00	-6.67	-3.69	6.69	1.53
56	59	0.080300	0.239000	0.05360	0.00	0.00	0.00	0.00000	0.000	1	0.00	0.00	-29.31	-3.91	30.07	1.13
56	59	0.082500	0.251000	0.05690	0.00	0.00	0.00	0.00000	0.000	1	0.00	0.00	-27.96	-4.18	28.67	0.99
59	60	0.031700	0.145000	0.03760	0.00	0.00	0.00	0.00000	0.000	1	0.00	0.00	-43.31	3.57	43.94	-4.40
59	61	0.032800	0.150000	0.03880	0.00	0.00	0.00	0.00000	0.000	1	0.00	0.00	-51.71	5.03	52.63	-4.63
63	59	0.000000	0.038600	0.00000	0.00	0.00	0.00	0.96000	0.000	1	0.00	0.00	151.75	67.48	-151.75	-57.03
60	61	0.002640	0.013500	0.01456	0.00	0.00	0.00	0.00000	0.000	1	0.00	0.00	-112.06	8.52	112.40	-8.23
60	62	0.012300	0.056100	0.01468	0.00	0.00	0.00	0.00000	0.000	1	0.00	0.00	-9.87	-7.11	9.89	5.74
61	62	0.008240	0.037600	0.00980	0.00	0.00	0.00	0.00000	0.000	1	0.00	0.00	25.49	-13.86	-25.42	13.20
64	61	0.000000	0.026800	0.00000	0.00	0.00	0.00	0.98500	0.000	1	0.00	0.00	30.52	13.99	-30.52	-13.69
62	66	0.048200	0.218000	0.05780	0.00	0.00	0.00	0.00000	0.000	1	0.00	0.00	-37.17	-17.26	37.93	14.68
62	67	0.025800	0.117000	0.03100	0.00	0.00	0.00	0.00000	0.000	1	0.00	0.00	-24.31	-14.41	24.50	12.15
63	64	0.001720	0.020000	0.21600	0.00	0.00	0.00	0.00000	0.000	1	0.00	0.00	-151.75	-67.48	152.24	52.51
64	65	0.002690	0.030200	0.38000	0.00	0.00	0.00	0.00000	0.000	1	0.00	0.00	-182.76	-66.49	183.75	40.06
65	66	0.000000	0.037000	0.00000	0.00	0.00	0.00	0.93500	0.000	1	0.00	0.00	8.47	72.25	-8.47	-70.55
65	68	0.001380	0.016000	0.63800	0.00	0.00	0.00	0.00000	0.000	1	0.00	0.00	14.16	-22.43	-14.16	-41.85
66	67	0.022400	0.101500	0.02682	0.00	0.00	0.00	0.00000	0.000	1	0.00	0.00	53.16	19.27	-52.50	-19.15
68	69	0.000000	0.037000	0.00000	0.00	0.00	0.00	0.93500	0.000	1	0.00	0.00	-125.62	112.81	125.62	-103.65
68	81	0.001750	0.020200	0.80800	0.00	0.00	0.00	0.00000	0.000	1	0.00	0.00	-44.35	-4.60	44.41	-75.55
68	116	0.000340	0.004050	0.16400	0.00	0.00	0.00	0.00000	0.000	1	0.00	0.00	184.13	-66.36	-184.00	51.32
69	70	0.030000	0.127000	0.12200	0.00	0.00	0.00	0.00000	0.000	1	0.00	0.00	108.34	16.08	-104.91	-14.00
69	75	0.040500	0.122000	0.12400	0.00	0.00	0.00	0.00000	0.000	1	0.00	0.00	109.96	20.49	-105.11	-18.33
69	77	0.030900	0.101000	0.10380	0.00	0.00	0.00	0.00000	0.000	1	0.00	0.00	62.07	6.82	-60.92	-13.85
70	71	0.008820	0.035500	0.00878	0.00	0.00	0.00	0.00000	0.000	1	0.00	0.00	16.65	-12.38	-16.61	11.68
70	74	0.040100	0.132300	0.03368	0.00	0.00	0.00	0.00000	0.000	1	0.00	0.00	16.20	12.90	-16.00	-15.42
70	75	0.042800	0.141000	0.03600	0.00	0.00	0.00	0.00000	0.000	1	0.00	0.00	-0.14	9.94	0.20	-13.17
71	72	0.044600	0.180000	0.04444	0.00	0.00	0.00	0.00000	0.000	1	0.00	0.00	10.60	-0.94	-10.54	-3.15
71	73	0.008660	0.045400	0.01178	0.00	0.00	0.00	0.00000	0.000	1	0.00	0.00	6.01	-10.74	-6.00	9.65
74	75	0.012300	0.040600	0.01034	0.00	0.00	0.00	0.00000	0.000	1	0.00	0.00	-52.00	-6.19	52.36	6.44
75	77	0.060100	0.199900	0.04978	0.00	0.00	0.00	0.00000	0.000	1	0.00	0.00	-34.64	-9.54	35.45	7.37
75	118	0.014500	0.048100	0.01198	0.00	0.00	0.00	0.00000	0.000	1	0.00	0.00	40.19	23.60	-39.85	-23.57
76	77	0.044400	0.148000	0.03680	0.00	0.00	0.00	0.00000	0.000	1	0.00	0.00	-61.18	-21.03	63.23	24.39
76	118	0.016400	0.054400	0.01356	0.00	0.00	0.00	0.00000	0.000	1	0.00	0.00	-6.82	-9.70	6.85	8.57
77	78	0.003760	0.012400	0.01264	0.00	0.00	0.00	0.00000	0.000	1	0.00	0.00	45.37	6.62	-45.29	-7.64
77	80	0.029400	0.105000	0.02280	0.00	0.00	0.00	0.00000	0.000	1	0.00	0.00	-44.39	-20.54	45.07	20.58
77	80	0.017000	0.048500	0.04720	0.00	0.00	0.00	0.00000	0.000	1	0.00	0.00	-96.63	-37.39	98.40	37.51
77	82	0.029800	0.085300	0.08174	0.00	0.00	0.00	0.00000	0.000	1	0.00	0.00	-3.11	17.35	3.25	-25.09
78	79	0.005460	0.024400	0.00648	0.00	0.00	0.00	0.00000	0.000	1	0.00	0.00	-25.71	-18.36	25.76	17.95
79	80	0.015600	0.070400	0.01870	0.00	0.00	0.00	0.00000	0.000	1	0.00	0.00	-64.76	-29.58	65.53	31.08
81	80	0.000000	0.037000	0.00000	0.00	0.00	0.00	0.93500	0.000	1	0.00	0.00	-44.41	75.55	44.41	-73.05
80	96	0.035600	0.182000	0.04940	0.00	0.00	0.00	0.00000	0.000	1	0.00	0.00	18.92	20.85	-18.62	-24.43
80	97	0.018300	0.093400	0.02540	0.00	0.00	0.00	0.00000	0.000	1	0.00	0.00	26.37	25.54	-26.13	-26.99
80	98	0.023800	0.108000	0.02860	0.00	0.00	0.00	0.00000	0.000	1	0.00	0.00	28.84	8.34	-28.64	-10.45
80	99	0.045400	0.206000	0.05460	0.00	0.00	0.00	0.00000	0.000	1	0.00	0.00	19.46	8.19	-19.25	-12.97
82	83	0.011200	0.036650	0.03796	0.00	0.00	0.00	0.00000	0.000	1	0.00	0.00	-47.12	24.51	47.45	-27.11
82	96	0.016200	0.053000	0.05440	0.00	0.00	0.00	0.00000	0.000	1	0.00	0.00	-10.13	-6.87	10.15	1.60
83	84	0.062500	0.132000	0.02580	0.00	0.00	0.00	0.00000	0.000	1	0.00	0.00	-24.74	14.73	25.30	-16.04
83	85	0.043000	0.148000	0.03480	0.00	0.00	0.00	0.00000	0.000	1	0.00	0.00	-42.71	12.07	43.61	-12.37
84	85	0.030200	0.064100	0.01234	0.00	0.00	0.00	0.00000	0.000	1	0.00	0.00	-36.30	9.04	36.74	-9.29
85	86	0.035000	0.123000	0.02760	0.00	0.00	0.00	0.00000	0.000	1	0.00	0.00	17.17	-7.35	-17.05	5.09
85	88	0.020000	0.102000	0.02760	0.00	0.00	0.00	0.00000	0.000	1	0.00	0.00	-50.34	7.58	50.88	-7.52
85	89	0.023900	0.173000	0.04700	0.00	0.00	0.00	0.00000	0.000	1	0.00	0.00	-71.18	0.66	72.43	3.73
86	87	0.028280	0.207400	0.04450	0.00	0.00	0.00	0.00000	0.000	1	0.00	0.00	-3.95	-15.09	4.00	11.02
88	89	0.013900	0.071200	0.01934	0.00	0.00	0.00	0.00000	0.000	1	0.00	0.00	-98.88	-2.48	100.27	7.70
89	90	0.023800	0.099700	0.10600	0.00	0.00	0.00	0.00000	0.000	1	0.00	0.00	110.74	-5.43	-107.85	7.04
89	90	0.051800	0.188000	0.05280	0.00	0.00	0.00	0.00000	0.000	1	0.00	0.00	58.17	-4.72	-56.44	5.80
89	92	0.039300	0.158100	0.04140	0.00	0.00	0.00	0.00000	0.000	1	0.00	0.00	63.60	-6.49	-62.02	8.72
89	92	0.009900	0.050500	0.05480	0.00	0.00	0.00	0.00000	0.000	1	0.00	0.00	201.78	-6.59	-197.79	21.49
90	91	0.025400	0.083600	0.02140	0.00	0.00	0.00	0.00000	0.000	1	0.00	0.00	1.29	4.46	-1.28	-6.50
91	92	0.038700	0.127200	0.03268	0.00	0.00	0.00	0.00000	0.000	1	0.00	0.00	-8.72	-8.35	8.77	5.33
92	93	0.025800	0.084800	0.02180	0.00	0.00	0.00	0.00000	0.000	1	0.00	0.00	57.72	-10.75	-56.82	11.57
92	94	0.048100	0.158000	0.04060	0.00	0.00	0.00	0.00000	0.000	1	0.00	0.00	52.26	-14.31	-50.85	14.95
92	100	0.064800	0.295000	0.04720	0.00	0.00	0.00	0.00000	0.000	1	0.00	0.00	31.45	-15.81	-30.68	14.55
92	102	0.012300	0.055900	0.01464	0.00	0.00	0.00	0.00000	0.000	1	0.00	0.00	44.62	-7.67	-44.36	7.39
93	94	0.022300	0.073200	0.01876	0.00	0.00	0.00	0.00000	0.000	1	0.00	0.00	44.82	-18.57	-44.29	18.48
94	95	0.013200	0.043400	0.01110	0.00	0.00	0.00	0.00000	0.000	1	0.00	0.00	40.99	9.33	-40.76	-9.62
94	96	0.026900	0.086900	0.02300	0.00	0.00	0.00	0.00000	0.000	1	0.00	0.00	19.93	-9.47	-19.81	7.62
94	100	0.017800	0.058000	0.06040	0.00	0.00	0.00	0.00000	0.000	1	0.00	0.00	4.21	-49.29	-3.81	44.48
95	96	0.017100	0.054700	0.01474	0.00	0.00	0.00	0.00000	0.000	1	0.00	0.00	-1.24	-21.38	1.32	20.18
96	97	0.017300	0.088500	0.02400	0.00	0.00	0.00	0.00000	0.000	1	0.00	0.00	-11.05	-19.97	11.13	17.99
98	100	0.039700	0.179000	0.04760	0.00	0.00	0.00	0.00000	0.000	1	0.00	0.00	-5.36	2.45	5.38	-7.32
99	100	0.018000	0.081300	0.02160	0.00	0.00	0.00	0.00000	0.000	1	0.00	0.00	-22.75	-4.57	22.85	2.77
100	101	0.027700	0.126200	0.03280	0.00	0.00	0.00	0.00000	0.000	1	0.00	0.00	-16.73	22.07	16.95	-24.35
100	103	0.016000	0.052500	0.05360	0.00	0.00	0.00	0.00000	0.000	1	0.00	0.00	121.01	-4.30	-118.75	6.28
100	104	0.045100	0.204000	0.05410	0.00	0.00	0.00	0.00000	0.000	1	0.00	0.00	56.41	10.62	-54.94	-9.34
100	106	0.060500	0.229000	0.06200	0.00	0.00	0.00	0.00000	0.000	1	0.00	0.00	60.56	9.17	-58.33	-6.79
101	102	0.024600	0.112000	0.02940	0.00	0.00	0.00	0.00000	0.000	1	0.00	0.00	-38.95	9.35	39.36	-10.39
103	104	0.046600	0.158400	0.04070	0.00	0.00	0.00	0.00000	0.000	1	0.00	0.00	32.32	7.93	-31.79	-10.08
103	105	0.053500	0.162500	0.04080	0.00	0.00	0.00	0.00000	0.000	1	0.00	0.00	42.96	6.55	-41.93	-7.39
103	110	0.039060	0.181300	0.04610	0.00	0.00	0.00	0.00000	0.000	1	0.00	0.00	60.56	3.23	-59.12	-1.03
104	105	0.009940	0.037800	0.00986	0.00	0.00	0.00	0.00000	0.000	1	0.00	0.00	48.73	0.06	-48.48	-0.04
105	106	0.014000	0.054700	0.01434	0.00	0.00	0.00	0.00000	0.000	1	0.00	0.00	8.69	4.54	-8.67	-5.82
105	107	0.053000	0.183000	0.04720	0.00	0.00	0.00	0.00000	0.000	1	0.00	0.00	26.73	-1.85	-26.33	-1.09
105	108	0.026100	0.070300	0.01844	0.00	0.00	0.00	0.00000	0.000	1	0.00	0.00	23.99	-10.61	-23.80	9.39
106	107	0.053000	0.183000	0.04720	0.00	0.00	0.00	0.00000	0.000	1	0.00	0.00	24.00	-3.40	-23.67	0.22
108	109	0.010500	0.028800	0.00760	0.00	0.00	0.00	0.00000	0.000	1	0.00	0.00	21.80	-10.39	-21.74	9.86
109	110	0.027800	0.076200	0.02020	0.00	0.00	0.00	0.00000	0.000	1	0.00	0.00	13.74	-12.86	-13.64	11.22
110	111	0.022000	0.075500	0.02000	0.00	0.00	0.00	0.00000	0.000	1	0.00	0.00	-35.70	0.96	36.00	-1.84
110	112	0.024700	0.064000	0.06200	0.00	0.00	0.00	0.00000	0.000	1	0.00	0.00	69.46	-30.61	-68.00	28.51
114	115	0.002300	0.010400	0.00276	0.00	0.00	0.00	0.00000	0.000	1	0.00	0.00	1.35	0.61	-1.35	-0.87
];

%% bus names
mpc.bus_name = {
'Riversde';
'Pokagon';
'HickryCk';
'NwCarlsl';
'Olive';
'Kankakee';
'JacksnRd';
'Olive';
'Bequine';
'Breed';
'SouthBnd';
'TwinBrch';
'Concord';
'GoshenJt';
'FtWayne';
'N. E.';
'Sorenson';
'McKinley';
'Lincoln';
'Adams';
'Jay';
'Randolph';
'CollCrnr';
'Trenton';
'TannrsCk';
'TannrsCk';
'Madison';
'Mullin';
'Grant';
'Sorenson';
'DeerCrk';
'Delaware';
'Haviland';
'Rockhill';
'WestLima';
'Sterling';
'EastLima';
'EastLima';
'NwLibrty';
'West End';
'S.Tiffin';
'Howard';
'S.Kenton';
'WMVernon';
'N.Newark';
'W.Lancst';
'Crooksvl';
'Zanesvll';
'Philo';
'WCambrdg';
'Newcmrst';
'SCoshoct';
'Wooster';
'Torrey';
'Wagenhls';
'Sunnysde';
'WNwPhil1';
'WNwPhil2';
'Tidd';
'SWKammer';
'W.Kammer';
'Natrium';
'Tidd';
'Kammer';
'Muskngum';
'Muskngum';
'Summerfl';
'Sporn';
'Sporn';
'Portsmth';
'NPortsmt';
'Hillsbro';
'Sargents';
'Bellefnt';
'SthPoint';
'Darrah';
'Turner';
'Chemical';
'CapitlHl';
'CabinCrk';
'Kanawha';
'Logan';
'Sprigg';
'BetsyLne';
'BeaverCk';
'Hazard';
'Pinevlle';
'Fremont';
'ClinchRv';
'Holston';
'HolstonT';
'Saltvlle';
'Tazewell';
'Switchbk';
'Caldwell';
'Baileysv';
'Sundial';
'Bradley';
'Hinton';
'Glen Lyn';
'Wythe';
'Smythe';
'Claytor';
'Hancock';
'Roanoke';
'Cloverdl';
'Reusens';
'Blaine';
'Franklin';
'Fieldale';
'DanRiver';
'Danville';
'Deer Crk';
'WMedford';
'Medford';
'KygerCrk';
'Corey';
'WHuntngd';
};

%% Generator Unit Types
mpc.gentype = {
'UN';
'UN';
'UN';
'UN';
'UN';
'UN';
'UN';
'UN';
'UN';
'UN';
'UN';
'UN';
'UN';
'UN';
'UN';
'UN';
'UN';
'UN';
'UN';
'UN';
'UN';
'UN';
'UN';
'UN';
'UN';
'UN';
'UN';
'UN';
'UN';
'UN';
'UN';
'UN';
'UN';
'UN';
'UN';
'UN';
'UN';
'UN';
'UN';
'UN';
'UN';
'UN';
'UN';
'UN';
'UN';
'UN';
'UN';
'UN';
'UN';
'UN';
'UN';
'UN';
'UN';
'UN';
};

%% Generator Fuel Types
mpc.genfuel = {
'unknown';
'unknown';
'unknown';
'unknown';
'unknown';
'unknown';
'unknown';
'unknown';
'unknown';
'unknown';
'unknown';
'unknown';
'unknown';
'unknown';
'unknown';
'unknown';
'unknown';
'unknown';
'unknown';
'unknown';
'unknown';
'unknown';
'unknown';
'unknown';
'unknown';
'unknown';
'unknown';
'unknown';
'unknown';
'unknown';
'unknown';
'unknown';
'unknown';
'unknown';
'unknown';
'unknown';
'unknown';
'unknown';
'unknown';
'unknown';
'unknown';
'unknown';
'unknown';
'unknown';
'unknown';
'unknown';
'unknown';
'unknown';
'unknown';
'unknown';
'unknown';
'unknown';
'unknown';
'unknown';
};
